Caso 1 - Recarga no Horário de Pico/cargasmv.dss
New load.S6	        bus1=	6.1.2.3	phases=	3	conn=	wye	model=	1	kV=	13.8	kW=	33.12	kVAR=	14.11	 
New load.S9		bus1=	9.1.2.3	phases=	3	conn=	wye	model=	1	kV=	13.8	kW=	33.12	kVAR=	14.11	 
New load.S12		bus1=	12.1.2.3	phases=	3	conn=	wye	model=	1	kV=	13.8	kW=	55.2	kVAR=	23.52	 
New load.S14		bus1=	14.1	phases=	1	conn=	wye	model=	1	kV=	7.97	kW=	22.08	kVAR=	9.41	 
New load.S15		bus1=	15.1	phases=	1	conn=	wye	model=	1	kV=	7.97	kW=	7.36	kVAR=	3.14	 
New load.S18		bus1=	18.1.2.3	phases=	3	conn=	wye	model=	1	kV=	13.8	kW=	33.12	kVAR=	14.11	 
New load.S23		bus1=	23.1	phases=	1	conn=	wye	model=	1	kV=	7.97	kW=	18.4	kVAR=	7.84	 
New load.S24		bus1=	24.1.2.3	phases=	3	conn=	wye	model=	1	kV=	13.8	kW=	11.04	kVAR=	4.70	 
New load.S26		bus1=	26.1	phases=	1	conn=	wye	model=	1	kV=	7.97	kW=	11.04	kVAR=	4.70	 
New load.S27		bus1=	27.1.2.3	phases=	3	conn=	wye	model=	1	kV=	13.8	kW=	55.2	kVAR=	23.52	 
New load.S29		bus1=	29.1	phases=	1	conn=	wye	model=	1	kV=	7.97	kW=	11.04	kVAR=	4.70	 
New load.S30		bus1=	30.1	phases=	1	conn=	wye	model=	1	kV=	7.97	kW=	18.4	kVAR=	7.84	 
New load.S31		bus1=	31.1	phases=	1	conn=	wye	model=	1	kV=	7.97	kW=	11.04	kVAR=	4.70	 
New load.S32		bus1=	32.1.2.3	phases=	3	conn=	wye	model=	1	kV=	13.8	kW=	33.12	kVAR=	14.11	 
New load.S33		bus1=	33.1	phases=	1	conn=	wye	model=	1	kV=	7.97	kW=	7.36	kVAR=	3.14	 
New load.S35		bus1=	35.1	phases=	1	conn=	wye	model=	1	kV=	7.97	kW=	11.04	kVAR=	4.70	 
New load.S37		bus1=	37.1	phases=	1	conn=	wye	model=	1	kV=	7.97	kW=	18.4	kVAR=	7.84	 
New load.S39		bus1=	39.1	phases=	1	conn=	wye	model=	1	kV=	7.97	kW=	11.04	kVAR=	4.70	 
New load.S40		bus1=	40.1	phases=	1	conn=	wye	model=	1	kV=	7.97	kW=	27.6	kVAR=	11.76	 
New load.S43		bus1=	43.1	phases=	1	conn=	wye	model=	1	kV=	7.97	kW=	18.4	kVAR=	7.84	 
New load.S45		bus1=	45.1	phases=	1	conn=	wye	model=	1	kV=	7.97	kW=	11.04	kVAR=	4.70	 
New load.S46		bus1=	46.1	phases=	1	conn=	wye	model=	1	kV=	7.97	kW=	11.04	kVAR=	4.70	 
New load.S202		bus1=	202.1.2.3	phases=	3	conn=	wye	model=	1	kV=	13.8	kW=	33.12	kVAR=	14.11	 
New load.S217		bus1=	217.1	phases=	1	conn=	wye	model=	1	kV=	7.97	kW=	33.12	kVAR=	14.11	 
New load.S223		bus1=	223.1	phases=	1	conn=	wye	model=	1	kV=	7.97	kW=	33.12	kVAR=	14.11	 
New load.S229		bus1=	229.1	phases=	1	conn=	wye	model=	1	kV=	7.97	kW=	27.6	kVAR=	11.76	 
New load.S230		bus1=	230.1.2.3	phases=	3	conn=	wye	model=	1	kV=	13.8	kW=	33.12	kVAR=	14.11	 
New load.S246		bus1=	246.1	phases=	1	conn=	wye	model=	1	kV=	7.97	kW=	33.12	kVAR=	14.11	 
New load.S251		bus1=	251.1	phases=	1	conn=	wye	model=	1	kV=	7.97	kW=	18.4	kVAR=	7.84	 
New load.S255		bus1=	255.1.2.3	phases=	3	conn=	wye	model=	1	kV=	13.8	kW=	33.12	kVAR=	14.11	 
New load.S260		bus1=	260.1	phases=	1	conn=	wye	model=	1	kV=	7.97	kW=	11.04	kVAR=	4.70	 
New load.S265		bus1=	265.1.2.3	phases=	3	conn=	wye	model=	1	kV=	13.8	kW=	33.12	kVAR=	14.11	 
New load.S293		bus1=	293.1	phases=	1	conn=	wye	model=	1	kV=	7.97	kW=	11.04	kVAR=	4.70	 
New load.S301		bus1=	301.1.2.3	phases=	3	conn=	wye	model=	1	kV=	13.8	kW=	33.12	kVAR=	14.11	 
New load.S304		bus1=	304.1	phases=	1	conn=	wye	model=	1	kV=	7.97	kW=	11.04	kVAR=	4.70	 
New load.S306		bus1=	306.1.2.3	phases=	3	conn=	wye	model=	1	kV=	13.8	kW=	33.12	kVAR=	14.11	 
New load.S310		bus1=	310.1.2.3	phases=	3	conn=	wye	model=	1	kV=	13.8	kW=	33.12	kVAR=	14.11	 
New load.S314		bus1=	314.1	phases=	1	conn=	wye	model=	1	kV=	7.97	kW=	27.6	kVAR=	11.76	 
New load.S320		bus1=	320.1	phases=	1	conn=	wye	model=	1	kV=	7.97	kW=	18.4	kVAR=	7.84	 
New load.S323		bus1=	323.1.2.3	phases=	3	conn=	wye	model=	1	kV=	13.8	kW=	55.2	kVAR=	23.52	 
New load.S329		bus1=	329.1.2.3	phases=	3	conn=	wye	model=	1	kV=	13.8	kW=	33.12	kVAR=	14.11	 
New load.S334		bus1=	334.1.2.3	phases=	3	conn=	wye	model=	1	kV=	13.8	kW=	33.12	kVAR=	14.11	 
New load.S341		bus1=	341.1.2.3	phases=	3	conn=	wye	model=	1	kV=	13.8	kW=	29.44	kVAR=	12.54	 
New load.S344		bus1=	344.1.2.3	phases=	3	conn=	wye	model=	1	kV=	13.8	kW=	11.04	kVAR=	4.70	 
New load.S356		bus1=	356.1.2.3	phases=	3	conn=	wye	model=	1	kV=	13.8	kW=	33.12	kVAR=	14.11	 
New load.S361		bus1=	361.1.2.3	phases=	3	conn=	wye	model=	1	kV=	13.8	kW=	33.12	kVAR=	14.11	 
New load.S364		bus1=	364.1.2.3	phases=	3	conn=	wye	model=	1	kV=	13.8	kW=	33.12	kVAR=	14.11	 
New load.S368		bus1=	368.1.2.3	phases=	3	conn=	wye	model=	1	kV=	13.8	kW=	55.2	kVAR=	23.52	 
New load.S374		bus1=	374.1	phases=	1	conn=	wye	model=	1	kV=	7.97	kW=	11.04	kVAR=	4.70	 
New load.S402		bus1=	402.1	phases=	1	conn=	wye	model=	1	kV=	7.97	kW=	11.04	kVAR=	4.70	 
New load.S403		bus1=	403.1	phases=	1	conn=	wye	model=	1	kV=	7.97	kW=	7.36	kVAR=	3.14	 
New load.S404		bus1=	404.1	phases=	1	conn=	wye	model=	1	kV=	7.97	kW=	11.04	kVAR=	4.70	 
New load.S405		bus1=	405.1.2.3	phases=	3	conn=	wye	model=	1	kV=	13.8	kW=	18.4	kVAR=	7.84	 
New load.S406		bus1=	406.1.2.3	phases=	3	conn=	wye	model=	1	kV=	13.8	kW=	55.2	kVAR=	23.52	 
New load.S407		bus1=	407.1.2.3	phases=	3	conn=	wye	model=	1	kV=	13.8	kW=	55.2	kVAR=	23.52	 
New load.S408		bus1=	408.1.2.3	phases=	3	conn=	wye	model=	1	kV=	13.8	kW=	33.12	kVAR=	14.11	 
New load.S410		bus1=	410.1.2.3	phases=	3	conn=	wye	model=	1	kV=	13.8	kW=	33.12	kVAR=	14.11	 
New load.S412		bus1=	412.1	phases=	1	conn=	wye	model=	1	kV=	13.8	kW=	11.04	kVAR=	4.70	 
New load.S413		bus1=	413.1.2.3	phases=	3	conn=	wye	model=	1	kV=	13.8	kW=	55.2	kVAR=	23.52	 
New load.S414		bus1=	414.1.2.3	phases=	3	conn=	wye	model=	1	kV=	13.8	kW=	33.12	kVAR=	14.11	 
New load.S415		bus1=	415.1	phases=	1	conn=	wye	model=	1	kV=	7.97	kW=	27.6	kVAR=	11.76	 
New load.S416		bus1=	416.1.2.3	phases=	3	conn=	wye	model=	1	kV=	13.8	kW=	33.12	kVAR=	14.11	 
New load.S417		bus1=	417.1.2.3	phases=	3	conn=	wye	model=	1	kV=	13.8	kW=	22.08	kVAR=	9.41	 
New load.S419		bus1=	419.1.2.3	phases=	3	conn=	wye	model=	1	kV=	13.8	kW=	11.04	kVAR=	4.70	 
New load.S421		bus1=	421.1	phases=	1	conn=	wye	model=	1	kV=	7.97	kW=	27.6	kVAR=	11.76	 
New load.S422		bus1=	422.1	phases=	1	conn=	wye	model=	1	kV=	7.97	kW=	7.36	kVAR=	3.14	 